; Filename: /var/folders/pc/dh47155n73z1c0p2_w058sx40000gn/T/tmp1hvq5un4.inp
; WNTR: 1.3.2
; Created: 2026-01-03 16:12:59
[TITLE]
Scenario: Chamisero Medio
Date: 03/09/2020 7:31:38

[JUNCTIONS]
;ID                      Elevation       Demand Pattern                 
 5323                    630.26043701               0 DHmax                      ;
 5333                    613.73803711               0 DHmax                      ;
 5725                    622.71569824               0 DHmax                      ;
 5726                    631.01031494               0 DHmax                      ;
 5727                    625.09985352               0 DHmax                      ;
 5728                    624.10351562               0 DHmax                      ;
 5729                    630.63623047               0 DHmax                      ;
 5730                    630.81561279               0 DHmax                      ;
 5731                    631.56890869               0 DHmax                      ;
 5732                    629.56469727               0 DHmax                      ;
 5733                    631.78710938               0 DHmax                      ;
 5734                    618.62908936           1.334 DHmax                      ;
 5735                    617.95776367               0 DHmax                      ;
 5736                    608.15930176               0 DHmax                      ;
 5737                    622.49188232               0 DHmax                      ;
 5751                    613.82208252               0 DHmax                      ;
 5752                    613.66894531               0 DHmax                      ;
 5753                    611.27868652               0 DHmax                      ;
 5754                    617.64904785           1.333 DHmax                      ;
 5755                    619.12768555               0 DHmax                      ;
 5756                    619.90679932               0 DHmax                      ;
 5757                    620.02990723               0 DHmax                      ;
 5758                    611.48632812               0 DHmax                      ;
 5759                    613.14343262               0 DHmax                      ;
 5766                    611.68084717           1.333 DHmax                      ;
 5767                    605.28546143               0 DHmax                      ;
 5768                    608.14978027               0 DHmax                      ;
 5769                    614.71185303               0 DHmax                      ;
 5770                    627.19665527               0 DHmax                      ;
 5771                    632.90557861               0 DHmax                      ;
 5772                    630.99371338               0 DHmax                      ;
 5828                    622.33569336               0 DHmax                      ;
 5829                    629.71905518               0 DHmax                      ;
 5833                    633.16644287               0 DHmax                      ;
 5847                    616.05157471               0 DHmax                      ;
 5850                    632.43383789               0 DHmax                      ;
 5851                    631.14239502               0 DHmax                      ;
 5853                     616.7401123               0 DHmax                      ;
 5877                    637.44989014               0 DHmax                      ;
 5878                    635.85620117               0 DHmax                      ;
 5879                    635.11553955               0 DHmax                      ;
 5880                     630.8739624               0 DHmax                      ;
 5881                    635.85577393               0 DHmax                      ;
 5883                    626.51403809               0 DHmax                      ;
 5886                    631.11779785               0 DHmax                      ;
 5888                    625.05505371               0 DHmax                      ;
 5889                      625.050354               0 DHmax                      ;
 5890                     627.0994873               0 DHmax                      ;
 5891                    620.36004639               0 DHmax                      ;
 5892                    620.96539307               0 DHmax                      ;
 5893                    627.27349854               0 DHmax                      ;
 5894                    623.43164062               0 DHmax                      ;
 5896                    624.99206543               0 DHmax                      ;
 5897                         631.375               0 DHmax                      ;
 5898                    624.62969971               0 DHmax                      ;
 5903                    614.21636963               0 DHmax                      ;
 7706                    616.88781738               0 DHmax                      ;
 7788                    614.94836426               0 DHmax                      ;
 7789                    615.28912354               0 DHmax                      ;
 7857                    622.82952881               0 DHmax                      ;
 7914                    617.70214844               0 DHmax                      ;
 7949                    613.38427734             3.1 DHmax                      ;
 7962                    614.56140137               0 DHmax                      ;
 7964                    616.77648926               0 DHmax                      ;
 7968                    617.29772949               0 DHmax                      ;
 7982                    617.62420654               0 DHmax                      ;
 8067                    614.37005615               0 DHmax                      ;
 5983                    623.67248535               0 DHmax                      ;
 5988                    624.99212646               0 DHmax                      ;
 5990                    622.39135742               0 DHmax                      ;
 5991                    608.04064941               0 DHmax                      ;
 5992                    617.89422607               0 DHmax                      ;
 5993                    618.60717773               0 DHmax                      ;
 5996                    631.97662354               0 DHmax                      ;
 5997                     614.6317749               0 DHmax                      ;
 6005                    634.89752197               0 DHmax                      ;
 6175-A                  621.78381348               0 DHmax                      ;
 6175-B                  621.78381348               0 DHmax                      ;
 6176-A                  623.74090576               0 DHmax                      ;
 6176-B                  623.74090576               0 DHmax                      ;
 6177-A                  624.86346436               0 DHmax                      ;
 6177-B                  624.86346436               0 DHmax                      ;
 6178-A                  630.56640625               0 DHmax                      ;
 6178-B                  630.56640625               0 DHmax                      ;
 6179-A                  626.58966064               0 DHmax                      ;
 6179-B                  626.58966064               0 DHmax                      ;
 6180-A                  622.65393066               0 DHmax                      ;
 6180-B                  622.65393066               0 DHmax                      ;
 6181-A                  617.75732422               0 DHmax                      ;
 6181-B                  617.75732422               0 DHmax                      ;
 6182-A                  607.97265625               0 DHmax                      ;
 6182-B                  607.97265625               0 DHmax                      ;
 6193-A                  618.49432373               0 DHmax                      ;
 6193-B                  618.49432373               0 DHmax                      ;
 6194-A                  613.34527588               0 DHmax                      ;
 6194-B                  613.34527588               0 DHmax                      ;
 6199-A                  632.19049072               0 DHmax                      ;
 6199-B                  632.19049072               0 DHmax                      ;
 6200-A                  614.51092529               0 DHmax                      ;
 6200-B                  614.51092529               0 DHmax                      ;
 6201-A                  626.31298828               0 DHmax                      ;
 6201-B                  626.31298828               0 DHmax                      ;
 6225-A                   635.1114502               0 DHmax                      ;
 6225-B                   635.1114502               0 DHmax                      ;
 6226-A                  618.82861328               0 DHmax                      ;
 6226-B                  618.82861328               0 DHmax                      ;
 6227-A                  620.65344238               0 DHmax                      ;
 6227-B                  620.65344238               0 DHmax                      ;
 6228-A                  620.07739258               0 DHmax                      ;
 6228-B                  620.07739258               0 DHmax                      ;
 6229-A                  625.17541504               0 DHmax                      ;
 6229-B                  625.17541504               0 DHmax                      ;
 6230-A                  626.26226807               0 DHmax                      ;
 6230-B                  626.26226807               0 DHmax                      ;
 6231-A                   626.8994751               0 DHmax                      ;
 6231-B                   626.8994751               0 DHmax                      ;
 8289-A                  618.07470703               0 DHmax                      ;
 8289-B                  618.07470703               0 DHmax                      ;
 8291-A                  616.89147949               0 DHmax                      ;
 8291-B                  616.89147949               0 DHmax                      ;
 8292-A                  616.44116211               0 DHmax                      ;
 8292-B                  616.44116211               0 DHmax                      ;
 6237-A                  612.42175293               0 DHmax                      ;
 6237-B                  612.42175293               0 DHmax                      ;
 6012-A                   614.2935791               0 DHmax                      ;
 6012-B                   614.2935791               0 DHmax                      ;
 6013-A                  613.65039062               0 DHmax                      ;
 6013-B                  613.65039062               0 DHmax                      ;
 6014-A                  613.37365723               0 DHmax                      ;
 6014-B                  613.37365723               0 DHmax                      ;
 1                                  0            -7.1 1                          ;

[RESERVOIRS]
;ID                                   Head                  Pattern

[TANKS]
;ID                              Elevation           Init Level            Min Level            Max Level             Diameter           Min Volume Volume Curve         Overflow            
 6009                          620.03            3.93               0             5.5           21.52 0.0028316846369                                             ;

[PIPES]
;ID                   Node1                Node2                              Length             Diameter            Roughness           Minor Loss               Status
 6317                 5728                 6176-A                  2.0015542078            96.9             140               0                 Open   ;
 6320                 5727                 6177-A                  2.0117196334            96.9             140               0                 Open   ;
 6345                 5890                 5732                    34.697553169           220.3             140               0                 Open   ;
 6370                 6177-B               5988                    2.1622526137             100             110               0                 Open   ;
 6371                 7857                 5725                    2.1244202251             500             100               0                 Open   ;
 6419                 6176-B               5983                    2.2986910235             100             110               0                 Open   ;
 6421                 5730                 6178-A                  2.3074028816            96.9             140               0                 Open   ;
 6447                 5731                 5733                     2.414572148           312.9             140               0                 Open   ;
 6450                 5756                 5757                    2.4239775894           143.7             150               0                 Open   ;
 6453                 6179-B               5883                    0.7984035598           220.3             140               0                 Open   ;
 6457                 6193-B               5993                    2.4378730938             100             110               0                 Open   ;
 6472                 5737                 6180-A                  2.4898798103            96.9             140               0                 Open   ;
 6477                 5736                 6182-A                  2.5028980402            96.9             140               0                 Open   ;
 6486                 5735                 6181-A                  2.5300620069            96.9             140               0                 Open   ;
 6535                 6180-B               5990                    2.9277515394             100             110               0                 Open   ;
 6564                 5732                 5829                    3.0895920269           220.3             140               0                 Open   ;
 6571                 6178-B               5323                     3.119583279            96.9             140               0                 Open   ;
 6604                 6181-B               5992                    3.4423457238             100             110               0                 Open   ;
 6618                 5752                 5751                     8.107897718            98.6             150               0                 Open   ;
 6619                 5751                 5752                    3.7019902017            98.6             150               0                 Open   ;
 6620                 5759                 6194-A                  3.7998062448            96.9             140               0                 Open   ;
 6623                 6182-B               5991                    3.8702133871             100             110               0                 Open   ;
 6636                 5758                 5753                    4.0681088037            98.6             150               0                 Open   ;
 6637                 5753                 5758                    11.241928459            98.6             150               0                 Open   ;
 6655                 5725                 5828                    6.6358561631           440.6             140               0                 Open   ;
 6677                 5771                 5833                    5.9679122101           220.3             140               0                 Open   ;
 6694                 5769                 6200-A                  7.2461913692            96.9             140               0                 Open   ;
 6697                 6194-B               5333                    7.3807591111            96.9             140               0                 Open   ;
 6698                 5771                 6199-A                  7.5114240068            96.9             140               0                 Open   ;
 6704                 5729                 5726                    7.7609900952           220.3             140               0                 Open   ;
 6706                 5893                 6179-A                  7.2414182382           220.3             140               0                 Open   ;
 6707                 6201-B               5770                    8.0601832848           220.3             140               0                 Open   ;
 6721                 5755                 6193-A                  8.6051839673            98.6             150               0                 Open   ;
 6738                 6200-B               5997                     9.157235248             100             110               0                 Open   ;
 6745                 6199-B               5996                    9.5843457287             100             110               0                 Open   ;
 6749                 5828                 6175-A                  10.361307261           220.3             140               0                 Open   ;
 6762                 5735                 5734                    11.811083389           277.6             140               0                 Open   ;
 6784                 5756                 5755                    13.737012088            98.6             150               0                 Open   ;
 6794                 5730                 5851                    14.221970258           312.9             140               0                 Open   ;
 6822                 5851                 5731                    16.323661088           312.9             140               0                 Open   ;
 6834                 7968                 8067                    19.645020878             500             100               0                 Open   ;
 6889                 5829                 5730                    26.346033559           312.9             140               0                 Open   ;
 6895                 5755                 5754                    27.954689427            98.6             150               0                 Open   ;
 6903                 6175-B               5728                    30.862355317           220.3             140               0                 Open   ;
 6921                 5766                 5759                    36.636383274           277.6             140               0                 Open   ;
 6943                 5333                 5853                    46.141211186            96.9             140               0                 Open   ;
 6957                 5767                 5768                    45.121915567           220.3             140               0                 Open   ;
 6962                 5766                 5768                     48.65022103           220.3             140               0                 Open   ;
 6966                 5770                 5772                    50.192979236           277.6             140               0                 Open   ;
 6985                 5853                 5756                    90.829662584           143.7             150               0                 Open   ;
 7005                 5754                 5752                    96.750899694            98.6             150               0                 Open   ;
 7021                 5736                 5766                    71.917236737           277.6             140               0                 Open   ;
 7035                 5770                 5771                    79.941954562           220.3             140               0                 Open   ;
 7036                 5754                 5753                    179.88970939            98.6             150               0                 Open   ;
 7094                 5759                 5735                    111.52162066           277.6             140               0                 Open   ;
 7116                 5850                 5727                    142.97819246           220.3             140               0                 Open   ;
 7117                 5768                 5769                    144.41043463           220.3             140               0                 Open   ;
 7121                 5728                 5850                    150.22904202           220.3             140               0                 Open   ;
 7134                 5731                 5737                    172.80076211           277.6             140               0                 Open   ;
 7142                 5769                 6201-A                  191.98408117           220.3             140               0                 Open   ;
 7159                 5737                 5736                    257.52245901           277.6             140               0                 Open   ;
 7166                 8067                 7857                    349.08210808             500             100               0                 Open   ;
 7203                 5879                 6225-A                  1.8875075938            96.9             140               0                 Open   ;
 7204                 6225-B               6005                    1.9494025764             100             110               0                 Open   ;
 7209                 5880                 5886                    2.2361927832           277.6             140               0                 Open   ;
 7211                 5881                 5878                    2.5817745099             141             140               0                 Open   ;
 7212                 5888                 6229-A                  3.9385175217            96.9             140               0                 Open   ;
 7213                 6229-B               5889                    3.2399130105            96.9             140               0                 Open   ;
 7214                 5772                 5880                    2.7273775701           277.6             140               0                 Open   ;
 7215                 6231-B               5890                    5.0545922644             141             140               0                 Open   ;
 7216                 6228-B               5891                    5.3439779947           312.9             140               0                 Open   ;
 7217                 5891                 6227-A                  5.4415041953           312.9             140               0                 Open   ;
 7218                 5734                 6226-A                  3.4607875371           277.6             140               0                 Open   ;
 7219                 6227-B               5892                    5.9540867718           312.9             140               0                 Open   ;
 7220                 5883                 6230-A                  6.4654693896           312.9             140               0                 Open   ;
 7221                 5879                 5881                    6.7461028934             141             140               0                 Open   ;
 7222                 5894                 5898                     8.189477476             141             140               0                 Open   ;
 7223                 5883                 5890                    8.5767593296           312.9             140               0                 Open   ;
 7224                 5891                 5725                    9.9338787572           312.9             140               0                 Open   ;
 7227                 5881                 5877                    14.587568417             141             140               0                 Open   ;
 7233                 5894                 5888                    35.555043242           312.9             140               0                 Open   ;
 7235                 5886                 5879                    36.804273064             141             140               0                 Open   ;
 7240                 5896                 6231-A                  61.768718766             141             140               0                 Open   ;
 7250                 5888                 5897                    137.75009875           312.9             140               0                 Open   ;
 7251                 6230-B               5894                      147.996179           312.9             140               0                 Open   ;
 7252                 5897                 6228-A                  178.27761052           312.9             140               0                 Open   ;
 7254                 6226-B               5880                    185.93144728           277.6             140               0                 Open   ;
 7255                 5727                 5898                    14.430965668           220.3             140               0                 Open   ;
 7256                 5898                 5729                    197.61021403           220.3             140               0                 Open   ;
 7265                 6012-B               5903                    4.8263560525           152.4             130               0                 Open   ;
 7266                 5903                 5847                    7.3941568185           152.4             130               0                 Open   ;
 7267                 6014-B               5903                    4.4372569632           152.4             130               0                 Open   ;
 7268                 6013-B               5903                    4.8681068826           152.4             130               0                 Open   ;
 7269                 7949                 6013-A                   4.849425509           152.4             130               0                   CV   ;
 7270                 7949                 6012-A                  6.0463668933           152.4             130               0                   CV   ;
 7271                 7949                 6014-A                  6.5380348485           152.4             130               0                   CV   ;
 7274                 7949                 6237-A                  8.7411919959             500             100               0                 Open   ;
 7275                 6237-B               5903                    6.4313201526             500             100               0                 Open   ;
 7704                 8291-B               7706                   0.55558400039             600             130               0                 Open   ;
 7787                 7788                 7789                     1.261792138             300             130               0                 Open   ;
 7913                 7914                 8289-A                  3.1659277781             600             130               0                 Open   ;
 7961                 7789                 7962                    5.2763164039             300             130               0                 Open   ;
 7963                 5847                 7964                    5.3371587374             500             130               0                 Open   ;
 7967                 7964                 7968                    5.4043822076             500             130               0                 Open   ;
 7981                 7982                 7914                    6.2783042703             600             130               0                 Open   ;
 7986                 7949                 7788                    6.1874873705             300             130               0                 Open   ;
 8033                 7962                 8292-A                   14.48965522             600             130               0                 Open   ;
 8049                 8292-B               8291-A                  15.570282983             600             130               0                 Open   ;
 8053                 6009                 8289-B                   16.45683978             600             130               0                   CV   ;
 8062                 7706                 7982                    18.082588558             600             130               0                 Open   ;
 1                    1                    6009                               1            1000             100               0                 Open   ;

[PUMPS]
;ID                   Node1                Node2                Properties          
 6012                 6012-A               6012-B               HEAD     AA-Cham-Med            ;
 6013                 6013-A               6013-B               HEAD     AA-Cham-Med            ;
 6014                 6014-A               6014-B               HEAD     AA-Cham-Med            ;

[VALVES]
;ID                   Node1                Node2                            Diameter Type              Setting           Minor Loss
 6175                 6175-A               6175-B                           250 TCV                0               0   ;
 6176                 6176-A               6176-B                           100 TCV                0               0   ;
 6177                 6177-A               6177-B                           100 TCV                0               0   ;
 6178                 6178-A               6178-B                           100 TCV                0               0   ;
 6179                 6179-A               6179-B                           250 TCV                0               0   ;