[TITLE]
Mexico City Test Network - Geographic Coordinates

[JUNCTIONS]
;ID              Elev        Demand      Pattern         
 Polanco         2250        120         1               ;
 Condesa         2240        150         1               ;
 Roma            2235        180         1               ;
 Coyoacan        2245        200         1               ;
 SanAngel        2260        160         1               ;
 Xochimilco      2242        140         1               ;

[RESERVOIRS]
;ID              Head        Pattern         
 Cutzamala       2350                        ;

[TANKS]
;ID              Elevation   InitLevel   MinLevel    MaxLevel    Diameter    MinVol      VolCurve        Overflow
 CerroEstrella   2300        8           2           12          40          0                           ;

[PIPES]
;ID              Node1           Node2           Length      Diameter    Roughness   MinorLoss   Status
 P1              Cutzamala       Polanco         5000        600         130         0           Open  ;
 P2              Polanco         Condesa         3000        500         130         0           Open  ;
 P3              Condesa         Roma            2000        450         130         0           Open  ;
 P4              Roma            Coyoacan        4000        400         130         0           Open  ;
 P5              Coyoacan        SanAngel        3500        350         130         0           Open  ;
 P6              SanAngel        Xochimilco      5000        300         130         0           Open  ;
 P7              Condesa         CerroEstrella   4500        500         130         0           Open  ;
 P8              Roma            Xochimilco      6000        350         130         0           Open  ;

[PUMPS]
;ID              Node1           Node2           Parameters

[VALVES]
;ID              Node1           Node2           Diameter    Type Setting      MinorLoss   
 PRV1            CerroEstrella   Coyoacan        300         PRV  20          0           ;

[PATTERNS]
;ID              Multipliers
;Typical daily pattern for Mexico City
 1               0.5         0.5         0.6         0.7         0.9         1.1
 1               1.3         1.4         1.3         1.2         1.1         1.0
 1               1.0         1.1         1.2         1.3         1.2         1.1
 1               1.0         0.9         0.8         0.7         0.6         0.5

[TIMES]
 Duration           24:00 
 Hydraulic Timestep 1:00 
 Quality Timestep   0:05 
 Pattern Timestep   1:00 
 Pattern Start      0:00 
 Report Timestep    1:00 
 Report Start       0:00 
 Start ClockTime    12 am
 Statistic          NONE

[OPTIONS]
 Units              LPS
 Headloss           H-W
 Specific Gravity   1.0
 Viscosity          1.0
 Trials             40
 Accuracy           0.001
 Pattern            1
 Demand Multiplier  1.0
 Quality            None mg/L

[COORDINATES]
;Node            X-Coord           Y-Coord
;Geographic coordinates (Longitude, Latitude)
 Polanco         -99.1916          19.4333
 Condesa         -99.1833          19.4125
 Roma            -99.1625          19.4167
 Coyoacan        -99.1625          19.3500
 SanAngel        -99.1958          19.3458
 Xochimilco      -99.1042          19.2625
 Cutzamala       -99.2500          19.4500
 CerroEstrella   -99.1250          19.3458

[VERTICES]
;Link            X-Coord           Y-Coord

[END]