[TITLE]
Scenario: Chamisero Medio 
Date: 03/09/2020 7:31:38 

[JUNCTIONS]
;ID              	Elev        	Demand      	Pattern         
 5323            	630.260437011719	0           	DHmax           	;
 5333            	613.738037109375	0           	DHmax           	;
 5725            	622.715698242188	0           	DHmax           	;
 5726            	631.010314941406	0           	DHmax           	;
 5727            	625.099853515625	0           	DHmax           	;
 5728            	624.103515625	0           	DHmax           	;
 5729            	630.63623046875	0           	DHmax           	;
 5730            	630.815612792969	0           	DHmax           	;
 5731            	631.568908691406	0           	DHmax           	;
 5732            	629.564697265625	0           	DHmax           	;
 5733            	631.787109375	0           	DHmax           	;
 5734            	618.629089355469	1.334       	DHmax           	;
 5735            	617.957763671875	0           	DHmax           	;
 5736            	608.159301757813	0           	DHmax           	;
 5737            	622.491882324219	0           	DHmax           	;
 5751            	613.822082519531	0           	DHmax           	;
 5752            	613.6689453125	0           	DHmax           	;
 5753            	611.278686523438	0           	DHmax           	;
 5754            	617.649047851563	1.333       	DHmax           	;
 5755            	619.127685546875	0           	DHmax           	;
 5756            	619.906799316406	0           	DHmax           	;
 5757            	620.029907226563	0           	DHmax           	;
 5758            	611.486328125	0           	DHmax           	;
 5759            	613.143432617188	0           	DHmax           	;
 5766            	611.680847167969	1.333       	DHmax           	;
 5767            	605.285461425781	0           	DHmax           	;
 5768            	608.149780273438	0           	DHmax           	;
 5769            	614.711853027344	0           	DHmax           	;
 5770            	627.196655273438	0           	DHmax           	;
 5771            	632.905578613281	0           	DHmax           	;
 5772            	630.993713378906	0           	DHmax           	;
 5828            	622.335693359375	0           	DHmax           	;
 5829            	629.719055175781	0           	DHmax           	;
 5833            	633.166442871094	0           	DHmax           	;
 5847            	616.051574707031	0           	DHmax           	;
 5850            	632.433837890625	0           	DHmax           	;
 5851            	631.142395019531	0           	DHmax           	;
 5853            	616.740112304688	0           	DHmax           	;
 5877            	637.449890136719	0           	DHmax           	;
 5878            	635.856201171875	0           	DHmax           	;
 5879            	635.115539550781	0           	DHmax           	;
 5880            	630.873962402344	0           	DHmax           	;
 5881            	635.855773925781	0           	DHmax           	;
 5883            	626.514038085937	0           	DHmax           	;
 5886            	631.117797851563	0           	DHmax           	;
 5888            	625.055053710938	0           	DHmax           	;
 5889            	625.050354003906	0           	DHmax           	;
 5890            	627.099487304687	0           	DHmax           	;
 5891            	620.360046386719	0           	DHmax           	;
 5892            	620.965393066406	0           	DHmax           	;
 5893            	627.273498535156	0           	DHmax           	;
 5894            	623.431640625	0           	DHmax           	;
 5896            	624.992065429688	0           	DHmax           	;
 5897            	631.375     	0           	DHmax           	;
 5898            	624.629699707031	0           	DHmax           	;
 5903            	614.216369628906	0           	DHmax           	;
 7706            	616.887817382813	0           	DHmax           	;
 7788            	614.948364257813	0           	DHmax           	;
 7789            	615.289123535156	0.0         	                	;
 7857            	622.829528808594	0           	DHmax           	;
 7914            	617.7021484375	0           	DHmax           	;
 7949            	613.38427734375	3.1         	DHmax           	;
 7962            	614.561401367188	0           	DHmax           	;
 7964            	616.776489257813	0           	DHmax           	;
 7968            	617.297729492188	0           	DHmax           	;
 7982            	617.624206542969	0           	DHmax           	;
 8067            	614.370056152344	0           	DHmax           	;
 5983            	623.672485351563	0           	DHmax           	;
 5988            	624.992126464844	0           	DHmax           	;
 5990            	622.391357421875	0           	DHmax           	;
 5991            	608.040649414063	0           	DHmax           	;
 5992            	617.894226074219	0           	DHmax           	;
 5993            	618.607177734375	0           	DHmax           	;
 5996            	631.976623535156	0           	DHmax           	;
 5997            	614.631774902344	0           	DHmax           	;
 6005            	634.897521972656	0           	DHmax           	;
 6175-A          	621.783813476563	0           	DHmax           	;
 6175-B          	621.783813476563	0           	DHmax           	;
 6176-A          	623.740905761719	0           	DHmax           	;
 6176-B          	623.740905761719	0           	DHmax           	;
 6177-A          	624.863464355469	0           	DHmax           	;
 6177-B          	624.863464355469	0           	DHmax           	;
 6178-A          	630.56640625	0           	DHmax           	;
 6178-B          	630.56640625	0           	DHmax           	;
 6179-A          	626.589660644531	0           	DHmax           	;
 6179-B          	626.589660644531	0           	DHmax           	;
 6180-A          	622.653930664063	0           	DHmax           	;
 6180-B          	622.653930664063	0           	DHmax           	;
 6181-A          	617.75732421875	0           	DHmax           	;
 6181-B          	617.75732421875	0           	DHmax           	;
 6182-A          	607.97265625	0           	DHmax           	;
 6182-B          	607.97265625	0           	DHmax           	;
 6193-A          	618.494323730469	0           	DHmax           	;
 6193-B          	618.494323730469	0           	DHmax           	;
 6194-A          	613.345275878906	0           	DHmax           	;
 6194-B          	613.345275878906	0           	DHmax           	;
 6199-A          	632.190490722656	0           	DHmax           	;
 6199-B          	632.190490722656	0           	DHmax           	;
 6200-A          	614.510925292969	0           	DHmax           	;
 6200-B          	614.510925292969	0           	DHmax           	;
 6201-A          	626.31298828125	0           	DHmax           	;
 6201-B          	626.31298828125	0           	DHmax           	;
 6225-A          	635.111450195313	0           	DHmax           	;
 6225-B          	635.111450195313	0           	DHmax           	;
 6226-A          	618.82861328125	0           	DHmax           	;
 6226-B          	618.82861328125	0           	DHmax           	;
 6227-A          	620.653442382813	0           	DHmax           	;
 6227-B          	620.653442382813	0           	DHmax           	;
 6228-A          	620.077392578125	0           	DHmax           	;
 6228-B          	620.077392578125	0           	DHmax           	;
 6229-A          	625.175415039063	0           	DHmax           	;
 6229-B          	625.175415039063	0           	DHmax           	;
 6230-A          	626.262268066406	0           	DHmax           	;
 6230-B          	626.262268066406	0           	DHmax           	;
 6231-A          	626.899475097656	0           	DHmax           	;
 6231-B          	626.899475097656	0           	DHmax           	;
 8289-A          	618.07470703125	0           	DHmax           	;
 8289-B          	618.07470703125	0           	DHmax           	;
 8291-A          	616.891479492188	0           	DHmax           	;
 8291-B          	616.891479492188	0           	DHmax           	;
 8292-A          	616.441162109375	0           	DHmax           	;
 8292-B          	616.441162109375	0           	DHmax           	;
 6237-A          	612.421752929688	0           	DHmax           	;
 6237-B          	612.421752929688	0           	DHmax           	;
 6012-A          	614.293579101563	0           	DHmax           	;
 6012-B          	614.293579101563	0           	DHmax           	;
 6013-A          	613.650390625	0           	DHmax           	;
 6013-B          	613.650390625	0           	DHmax           	;
 6014-A          	613.373657226563	0           	DHmax           	;
 6014-B          	613.373657226563	0           	DHmax           	;
 1               	0           	-7.1        	1               	;

[RESERVOIRS]
;ID              	Head        	Pattern         

[TANKS]
;ID              	Elevation   	InitLevel   	MinLevel    	MaxLevel    	Diameter    	MinVol      	VolCurve
 6009            	620.03      	3.93000000000006	0           	5.5         	21.52       	0.00283168463686774	                	;

[PIPES]
;ID              	Node1           	Node2           	Length      	Diameter    	Roughness   	MinorLoss   	Status
 6317            	5728            	6176-A          	2.0015542078294	96.9        	140         	0           	Open  	;
 6320            	5727            	6177-A          	2.01171963340286	96.9        	140         	0           	Open  	;
 6345            	5890            	5732            	34.6975531688134	220.3       	140         	0           	Open  	;
 6370            	6177-B          	5988            	2.16225261370299	100         	110         	0           	Open  	;
 6371            	7857            	5725            	2.12442022505369	500         	100         	0           	Open  	;
 6419            	6176-B          	5983            	2.29869102346064	100         	110         	0           	Open  	;
 6421            	5730            	6178-A          	2.30740288162344	96.9        	140         	0           	Open  	;
 6447            	5731            	5733            	2.41457214797792	312.9       	140         	0           	Open  	;
 6450            	5756            	5757            	2.42397758938586	143.7       	150         	0           	Open  	;
 6453            	6179-B          	5883            	0.798403559804803	220.3       	140         	0           	Open  	;
 6457            	6193-B          	5993            	2.43787309378682	100         	110         	0           	Open  	;
 6472            	5737            	6180-A          	2.48987981026991	96.9        	140         	0           	Open  	;
 6477            	5736            	6182-A          	2.50289804021467	96.9        	140         	0           	Open  	;
 6486            	5735            	6181-A          	2.53006200686469	96.9        	140         	0           	Open  	;
 6535            	6180-B          	5990            	2.9277515393862	100         	110         	0           	Open  	;
 6564            	5732            	5829            	3.089592026897	220.3       	140         	0           	Open  	;
 6571            	6178-B          	5323            	3.11958327895408	96.9        	140         	0           	Open  	;
 6604            	6181-B          	5992            	3.44234572381031	100         	110         	0           	Open  	;
 6618            	5752            	5751            	8.10789771797485	98.6        	150         	0           	Open  	;
 6619            	5751            	5752            	3.70199020170722	98.6        	150         	0           	Open  	;
 6620            	5759            	6194-A          	3.79980624480987	96.9        	140         	0           	Open  	;
 6623            	6182-B          	5991            	3.87021338710974	100         	110         	0           	Open  	;
 6636            	5758            	5753            	4.06810880368702	98.6        	150         	0           	Open  	;
 6637            	5753            	5758            	11.2419284589893	98.6        	150         	0           	Open  	;
 6655            	5725            	5828            	6.63585616311053	440.6       	140         	0           	Open  	;
 6677            	5771            	5833            	5.96791221014766	220.3       	140         	0           	Open  	;
 6694            	5769            	6200-A          	7.24619136919528	96.9        	140         	0           	Open  	;
 6697            	6194-B          	5333            	7.38075911105742	96.9        	140         	0           	Open  	;
 6698            	5771            	6199-A          	7.51142400679315	96.9        	140         	0           	Open  	;
 6704            	5729            	5726            	7.76099009521098	220.3       	140         	0           	Open  	;
 6706            	5893            	6179-A          	7.24141823816997	220.3       	140         	0           	Open  	;
 6707            	6201-B          	5770            	8.0601832847769	220.3       	140         	0           	Open  	;
 6721            	5755            	6193-A          	8.60518396729116	98.6        	150         	0           	Open  	;
 6738            	6200-B          	5997            	9.15723524795728	100         	110         	0           	Open  	;
 6745            	6199-B          	5996            	9.5843457287441	100         	110         	0           	Open  	;
 6749            	5828            	6175-A          	10.3613072614728	220.3       	140         	0           	Open  	;
 6762            	5735            	5734            	11.8110833894278	277.6       	140         	0           	Open  	;
 6784            	5756            	5755            	13.7370120884907	98.6        	150         	0           	Open  	;
 6794            	5730            	5851            	14.2219702578279	312.9       	140         	0           	Open  	;
 6822            	5851            	5731            	16.3236610878394	312.9       	140         	0           	Open  	;
 6834            	7968            	8067            	19.645020878465	500         	100         	0           	Open  	;
 6889            	5829            	5730            	26.3460335585931	312.9       	140         	0           	Open  	;
 6895            	5755            	5754            	27.9546894271912	98.6        	150         	0           	Open  	;
 6903            	6175-B          	5728            	30.8623553166908	220.3       	140         	0           	Open  	;
 6921            	5766            	5759            	36.6363832737799	277.6       	140         	0           	Open  	;
 6943            	5333            	5853            	46.141211186157	96.9        	140         	0           	Open  	;
 6957            	5767            	5768            	45.1219155667998	220.3       	140         	0           	Open  	;
 6962            	5766            	5768            	48.6502210296332	220.3       	140         	0           	Open  	;
 6966            	5770            	5772            	50.1929792356602	277.6       	140         	0           	Open  	;
 6985            	5853            	5756            	90.8296625843739	143.7       	150         	0           	Open  	;
 7005            	5754            	5752            	96.7508996940943	98.6        	150         	0           	Open  	;
 7021            	5736            	5766            	71.9172367367267	277.6       	140         	0           	Open  	;
 7035            	5770            	5771            	79.9419545618506	220.3       	140         	0           	Open  	;
 7036            	5754            	5753            	179.889709391015	98.6        	150         	0           	Open  	;
 7094            	5759            	5735            	111.521620663037	277.6       	140         	0           	Open  	;
 7116            	5850            	5727            	142.978192457959	220.3       	140         	0           	Open  	;
 7117            	5768            	5769            	144.410434627274	220.3       	140         	0           	Open  	;
 7121            	5728            	5850            	150.229042018312	220.3       	140         	0           	Open  	;
 7134            	5731            	5737            	172.800762111165	277.6       	140         	0           	Open  	;
 7142            	5769            	6201-A          	191.98408117103	220.3       	140         	0           	Open  	;
 7159            	5737            	5736            	257.52245900896	277.6       	140         	0           	Open  	;
 7166            	8067            	7857            	349.082108084804	500         	100         	0           	Open  	;
 7203            	5879            	6225-A          	1.88750759379879	96.9        	140         	0           	Open  	;
 7204            	6225-B          	6005            	1.94940257642576	100         	110         	0           	Open  	;
 7209            	5880            	5886            	2.23619278318971	277.6       	140         	0           	Open  	;
 7211            	5881            	5878            	2.581774509938	141         	140         	0           	Open  	;
 7212            	5888            	6229-A          	3.9385175216631	96.9        	140         	0           	Open  	;
 7213            	6229-B          	5889            	3.23991301047282	96.9        	140         	0           	Open  	;
 7214            	5772            	5880            	2.72737757006712	277.6       	140         	0           	Open  	;
 7215            	6231-B          	5890            	5.05459226440059	141         	140         	0           	Open  	;
 7216            	6228-B          	5891            	5.34397799473504	312.9       	140         	0           	Open  	;
 7217            	5891            	6227-A          	5.44150419526371	312.9       	140         	0           	Open  	;
 7218            	5734            	6226-A          	3.4607875371408	277.6       	140         	0           	Open  	;
 7219            	6227-B          	5892            	5.95408677182287	312.9       	140         	0           	Open  	;
 7220            	5883            	6230-A          	6.46546938956454	312.9       	140         	0           	Open  	;
 7221            	5879            	5881            	6.74610289337972	141         	140         	0           	Open  	;
 7222            	5894            	5898            	8.18947747604193	141         	140         	0           	Open  	;
 7223            	5883            	5890            	8.57675932962158	312.9       	140         	0           	Open  	;
 7224            	5891            	5725            	9.93387875722977	312.9       	140         	0           	Open  	;
 7227            	5881            	5877            	14.5875684172397	141         	140         	0           	Open  	;
 7233            	5894            	5888            	35.5550432419097	312.9       	140         	0           	Open  	;
 7235            	5886            	5879            	36.8042730643043	141         	140         	0           	Open  	;
 7240            	5896            	6231-A          	61.7687187655672	141         	140         	0           	Open  	;
 7250            	5888            	5897            	137.750098753043	312.9       	140         	0           	Open  	;
 7251            	6230-B          	5894            	147.996178996442	312.9       	140         	0           	Open  	;
 7252            	5897            	6228-A          	178.277610523614	312.9       	140         	0           	Open  	;
 7254            	6226-B          	5880            	185.931447275457	277.6       	140         	0           	Open  	;
 7255            	5727            	5898            	14.4309656677616	220.3       	140         	0           	Open  	;
 7256            	5898            	5729            	197.610214026013	220.3       	140         	0           	Open  	;
 7265            	6012-B          	5903            	4.82635605254947	152.40000000061	130         	0           	Open  	;
 7266            	5903            	5847            	7.39415681852096	152.40000000061	130         	0           	Open  	;
 7267            	6014-B          	5903            	4.43725696324862	152.40000000061	130         	0           	Open  	;
 7268            	6013-B          	5903            	4.86810688261635	152.40000000061	130         	0           	Open  	;
 7269            	7949            	6013-A          	4.84942550904442	152.40000000061	130         	0           	CV    	;
 7270            	7949            	6012-A          	6.04636689326035	152.40000000061	130         	0           	CV    	;
 7271            	7949            	6014-A          	6.53803484846543	152.40000000061	130         	0           	CV    	;
 7274            	7949            	6237-A          	8.74119199590076	500         	100         	0           	Open  	;
 7275            	6237-B          	5903            	6.43132015258041	500         	100         	0           	Open  	;
 7704            	8291-B          	7706            	0.555584000387961	600         	130         	0           	Open  	;
 7787            	7788            	7789            	1.26179213798225	300         	130         	0           	Open  	;
 7913            	7914            	8289-A          	3.16592777813922	600         	130         	0           	Open  	;
 7961            	7789            	7962            	5.27631640385295	300         	130         	0           	Open  	;
 7963            	5847            	7964            	5.33715873736477	500         	130         	0           	Open  	;
 7967            	7964            	7968            	5.40438220763787	500         	130         	0           	Open  	;
 7981            	7982            	7914            	6.27830427026694	600         	130         	0           	Open  	;
 7986            	7949            	7788            	6.187487370509	300         	130         	0           	Open  	;
 8033            	7962            	8292-A          	14.489655220149	600         	130         	0           	Open  	;
 8049            	8292-B          	8291-A          	15.5702829834028	600         	130         	0           	Open  	;
 8053            	6009            	8289-B          	16.4568397800603	600         	130         	0           	CV    	;
 8062            	7706            	7982            	18.0825885584971	600         	130         	0           	Open  	;
 1               	1               	6009            	1           	1000        	100         	0           	Open  	;

[PUMPS]
;ID              	Node1           	Node2           	Parameters
 6012            	6012-A          	6012-B          	HEAD AA-Cham-Med	SPEED 1	;
 6013            	6013-A          	6013-B          	HEAD AA-Cham-Med	SPEED 1	;
 6014            	6014-A          	6014-B          	HEAD AA-Cham-Med	SPEED 1	;

[VALVES]
;ID              	Node1           	Node2           	Diameter    	Type	Setting     	MinorLoss   
 6175            	6175-A          	6175-B          	250         	TCV 	0           	0           	;
 6176            	6176-A          	6176-B          	100         	TCV 	0           	0           	;
 6177            	6177-A          	6177-B          	100         	TCV 	0           	0           	;
 6178            	6178-A          	6178-B          	100         	TCV 	0           	0           	;
 6179            	6179-A          	6179-B          	250         	TCV 	0           	0           	;
 6180            	6180-A          	6180-B          	100         	TCV 	0           	0           	;
 6181            	6181-A          	6181-B          	100         	TCV 	0           	0           	;
 6182            	6182-A          	6182-B          	100         	TCV 	0           	0           	;
 6193            	6193-A          	6193-B          	100         	TCV 	0           	0           	;
 6194            	6194-A          	6194-B          	100         	TCV 	0           	0           	;
 6199            	6199-A          	6199-B          	100         	TCV 	0           	0           	;
 6200            	6200-A          	6200-B          	100         	TCV 	0           	0           	;
 6201            	6201-A          	6201-B          	250         	TCV 	0           	0           	;
 6225            	6225-A          	6225-B          	152.40000000061	TCV 	0           	0           	;
 6226            	6226-A          	6226-B          	152.40000000061	TCV 	0           	0           	;
 6227            	6227-A          	6227-B          	152.40000000061	TCV 	0           	0           	;
 6228            	6228-A          	6228-B          	152.40000000061	TCV 	0           	0           	;
 6229            	6229-A          	6229-B          	152.40000000061	TCV 	0           	0           	;
 6230            	6230-A          	6230-B          	152.40000000061	TCV 	0           	0           	;
 6231            	6231-A          	6231-B          	152.40000000061	TCV 	0           	0           	;
 8289            	8289-A          	8289-B          	152.40000000061	TCV 	0           	0           	;
 8291            	8291-A          	8291-B          	152.40000000061	TCV 	0           	0           	;
 8292            	8292-A          	8292-B          	152.40000000061	TCV 	0           	0           	;
 6237            	6237-A          	6237-B          	152.40000000061	PRV 	0           	0           	;

[TAGS]

[DEMANDS]
;Junction        	Demand      	Pattern         	Category

[STATUS]
;ID              	Status/Setting
 6237            	Closed

[PATTERNS]
;ID              	Multipliers
;
 Curva_Unitaria_08/06/2020	0.68        	0.64        	0.89        	0.67        	0.57        	0.52        
 Curva_Unitaria_08/06/2020	0.53        	0.6         	1           	0.69        	0.89        	0.93        
 Curva_Unitaria_08/06/2020	0.96        	0.55        	0.68        	0.94        	0.78        	0.61        
 Curva_Unitaria_08/06/2020	0.66        	0.88        	0.66        	0.79        	0.93        	0.73        
 Curva_Unitaria_08/06/2020	0.68        
;
 Curva_Unitaria_Q_Medio	0           	0           	0           	0           	0           	0           
 Curva_Unitaria_Q_Medio	0           	0           	0           	0           	0           	0           
 Curva_Unitaria_Q_Medio	0           	0           	0           	0           	0           	0           
 Curva_Unitaria_Q_Medio	0           	0           	0           	0           	0           	0           
 Curva_Unitaria_Q_Medio	0           	0           	0           	0           	0           	0           
 Curva_Unitaria_Q_Medio	0           	0           	0           	0           	0           	0           
 Curva_Unitaria_Q_Medio	0           	0           	0           	0           	0           	0           
 Curva_Unitaria_Q_Medio	0           	0           	0           	0           	0           	0           
 Curva_Unitaria_Q_Medio	0           	0           	0           	0           	0           	0           
 Curva_Unitaria_Q_Medio	0           	0           	0           	0           	0           	0           
 Curva_Unitaria_Q_Medio	0           	0           	0           	0           	0           	0           
 Curva_Unitaria_Q_Medio	0           	0           	0           	0           	0           	0           
 Curva_Unitaria_Q_Medio	0           	0           	0           	0           	0           	0           
 Curva_Unitaria_Q_Medio	0           	0           	0           	0           	0           	0           
 Curva_Unitaria_Q_Medio	0           	0           	0           	0           	0           	0           
 Curva_Unitaria_Q_Medio	0           	0           	0           	0           	0           	0           
 Curva_Unitaria_Q_Medio	0           	0           	0           	0           	0           	0           
 Curva_Unitaria_Q_Medio	0           	0           	0           	0           	0           	0           
 Curva_Unitaria_Q_Medio	0           	0           	0           	0           	0           	0           
 Curva_Unitaria_Q_Medio	0           	0           	0           	0           	0           	0           
 Curva_Unitaria_Q_Medio	0           	0           	0           	0           	0           	0           
 Curva_Unitaria_Q_Medio	0           	0           	0           	0           	0           	0           
 Curva_Unitaria_Q_Medio	0           	0           	0           	0           	0           	0           
 Curva_Unitaria_Q_Medio	0           	0           	0           	0           	0           	0           
 Curva_Unitaria_Q_Medio	0           	0           	0           	0           	0           	0           
 Curva_Unitaria_Q_Medio	0           	0           	0           	0           	0           	0           
 Curva_Unitaria_Q_Medio	0           	0           	0           	0           	0           	0           
 Curva_Unitaria_Q_Medio	0           	0           	0           	0           	0           	0           
 Curva_Unitaria_Q_Medio	0           	0           	0           	0           	0           	0           
 Curva_Unitaria_Q_Medio	0           	0           	0           	0           	0           	0           
 Curva_Unitaria_Q_Medio	0           	0           	0           	0           	0           	0           
 Curva_Unitaria_Q_Medio	0           	0           	0           	0           	0           	0           
 Curva_Unitaria_Q_Medio	0           	0           	0           	0           	0           	0           
 Curva_Unitaria_Q_Medio	0           	0           	0           	0           	0           	0           
 Curva_Unitaria_Q_Medio	0           	0           	0           	0           	0           	0           
 Curva_Unitaria_Q_Medio	0           	0           	0           	0           	0           	0           
 Curva_Unitaria_Q_Medio	0           	0           	0           	0           	0           	0           
 Curva_Unitaria_Q_Medio	0           	0           	0           	0           	0           	0           