[TITLE]
Cartagena de Indias. Caudal medio. 2011

[JUNCTIONS]
;ID              	Elev        	Demand      	Pattern         
 NUD127E21824    	32.298      	0.24        	LaConquista     	;				
 NUD127E21820    	30.5        	0.00        	LaConquista     	;				
 NUD127E21373    	10.673      	0.24        	Andalucia       	;				
 NUD127E21372    	22          	0.15        	EscallonVilla   	;				
 NUD127E21366    	9.661       	0.07        	Paraguay        	;				
 NUD127E21359    	11.2        	0.28        	Paraguay        	;				
 NUD127E21357    	8.729       	0.52        	Andalucia       	;				
 NUD127E21355    	10          	0.48        	Andalucia       	;				
 NUD127E21352    	13.829      	0.18        	Andalucia       	;				
 NUD127E21351    	27.009      	0.11        	PiedraBolivar1  	;				
 NUD127E21350    	29.885      	0.31        	PiedraBolivar2  	;				
 NUD127E21349    	27.139      	0.00        	PiedraBolivar1  	;				
 NUD127E21348    	28.485      	0.26        	Lomas           	;				
 NUD127E21347    	12.905      	0.00        	Lomas           	;				
 NUD127E21345    	11.825      	0.10        	Lomas           	;				
 NUD127E21344    	12.043      	0.10        	Lomas           	;				
 NUD127E21343    	12          	0.10        	Lomas           	;				
 NUD127E21337    	12          	0.16        	LosCerros       	;				
 NUD127E21334    	14          	0.16        	LosCerros       	;				
 NUD127E21330    	16          	0.04        	Paraguay        	;				
 NUD127E21321    	12.305      	0.10        	Lomas           	;				
 NUD127E21314    	9.515       	0.00        	LosCerros       	;				
 NUD127E21313    	10.642      	0.00        	Andalucia       	;				
 NUD127E21296    	16.211      	0.00        	Lomas           	;				
 NUD127E21215    	17.021      	0.10        	Lomas           	;				
 NUD127E21158    	41.46       	0.00        	Lomas           	;				
 NUD127E21157    	46.355      	0.00        	Lomas           	;				
 NUD127E21156    	52.064      	0.03        	Lomas           	;				
 NUD127E21155    	55.643      	0.00        	Lomas           	;				
 NUD127E21154    	38.533      	0.04        	Lomas           	;				
 NUD127E21153    	20          	0.10        	Lomas           	;				
 NUD127E21152    	25.911      	0.00        	Lomas           	;				
 NUD127E21151    	26.837      	0.10        	Lomas           	;				
 NUD127E21132    	12.613      	0.17        	Campina         	;				
 NUD127E21131    	35.985      	0.00        	Lomas           	;				
 NUD127E21123    	40.357      	0.00        	Lomas           	;				
 NUD127E21115    	22.687      	0.10        	Lomas           	;				
 NUD127E21112    	16          	0.10        	Lomas           	;				
 NUD127E21106    	23.772      	0.16        	LosCerros       	;				
 NUD127E21105    	23.737      	0.16        	LosCerros       	;				
 NUD127E21104    	21.602      	0.05        	LosCerros       	;				
 NUD127E21103    	11.014      	0.16        	LosCerros       	;				
 NUD127E21102    	14.698      	0.11        	LosCerros       	;				
 NUD127E21101    	38.478      	0.15        	Conquistador    	;				
 NUD127E21100    	28.445      	0.32        	Conquistador    	;				
 NUD127E21099    	24          	0.21        	Conquistador    	;				
 NUD127E21098    	24          	0.22        	Conquistador    	;				
 NUD127E21097    	23.958      	0.41        	Conquistador    	;				
 NUD127E21096    	29.875      	0.03        	Lomas           	;				
 NUD127E21095    	36.719      	0.03        	Lomas           	;				
 NUD127E21093    	36.135      	0.12        	PiedraBolivar1  	;				
 NUD127E21091    	22          	0.00        	Conquistador    	;				
 NUD127E21090    	43.256      	0.00        	Lomas           	;				
 NUD127E21075    	12.442      	0.05        	LosCerros       	;				
 NUD127E21074    	12.494      	0.06        	AltosNBosque    	;				
 NUD127E21073    	24          	0.14        	Bosquecito      	;				
 NUD127E21072    	16.837      	0.16        	LosCerros       	;				
 NUD127E21071    	18.117      	0.16        	LosCerros       	;				
 NUD127E21069    	24.225      	0.00        	Conquistador    	;				
 NUD127E21068    	34.193      	0.15        	Conquistador    	;				
 NUD127E21066    	20.404      	0.53        	Paraguay        	;				
 NUD127E21065    	14.259      	0.09        	Paraguay        	;				
 NUD127E21042    	25.566      	0.00        	LaConquista     	;				
 NUD127E21041    	26.596      	0.21        	Paraguay        	;				
 NUD127E21040    	28.451      	0.28        	Paraguay        	;				
 NUD127E21039    	26.563      	0.14        	Conquistador    	;				
 NUD127E21038    	32          	0.07        	Conquistador    	;				
 NUD127E21037    	23.591      	0.17        	Paraguay        	;				
 NUD127E21032    	37.454      	0.13        	Lomas           	;				
 NUD127E21008    	15.917      	1.39        	EscallonVilla   	;				
 NUD127E21004    	18.362      	0.11        	EscallonVilla   	;				
 NUD127E21002    	8           	0.08        	Campina         	;				
 NUD127E20980    	21.377      	0.02        	Conquistador    	;				
 NUD127E20979    	23.742      	0.00        	Conquistador    	;				
 NUD127E20978    	26.782      	0.14        	Conquistador    	;				
 NUD127E20977    	30.313      	0.14        	Conquistador    	;				
 NUD127E20959    	8           	0.20        	Campina         	;				
 NUD127E20956    	13.293      	0.10        	Lomas           	;				
 NUD127E20948    	18          	0.00        	Paraguay        	;				
 NUD127E20942    	15.698      	0.39        	Paraguay        	;				
 NUD127E20791    	9.578       	0.39        	Campina         	;				
 NUD127E20749    	16.781      	0.00        	Bosquecito      	;				
 NUD127E20738    	21.419      	0.00        	EscallonVilla   	;				
 NUD127E20736    	12          	0.00        	Lomas           	;				
 NUD127E20735    	12          	0.22        	Campina         	;				
 NUD127E20733    	14          	0.10        	Lomas           	;				
 NUD127E20732    	12          	0.00        	Lomas           	;				
 NUD127E20712    	31.88       	0.03        	Lomas           	;				
 NUD127E20697    	31.785      	0.00        	Lomas           	;				
 NUD127E20696    	55.127      	0.00        	Lomas           	;				
 NUD127E20694    	26          	0.00        	Lomas           	;				
 NUD127E20693    	26          	0.22        	Lomas           	;				
 NUD127E20692    	28          	0.00        	Lomas           	;				
 NUD127E20690    	51.111      	0.19        	PiedraBolivar2  	;				
 NUD127E20688    	40.508      	0.21        	LaConquista     	;				
 NUD127E20687    	37.138      	0.27        	LaConquista     	;				
 NUD127E20686    	28.947      	0.00        	LaConquista     	;				
 NUD127E20668    	16          	0.00        	Lomas           	;				
 NUD127E20667    	15.924      	0.07        	Campina         	;				
 NUD127E20666    	14.079      	0.57        	LosCerros       	;				
 NUD127E20665    	13.641      	0.05        	LosCerros       	;				
 NUD127E20662    	25.422      	0.10        	Lomas           	;				
 NUD127E20661    	18          	0.10        	Lomas           	;				
 NUD127E20660    	14.844      	0.00        	Lomas           	;				
 NUD127E20654    	14.822      	0.00        	Lomas           	;				
 NUD129E22137    	14.1        	0.10        	Lomas           	;				
 NUD127E20622    	17.004      	0.02        	PiedraBolivar1  	;				
 NUD127E20621    	27.203      	0.49        	PiedraBolivar1  	;				
 NUD127E20585    	14          	0.00        	Lomas           	;				
 NUD127E20584    	14          	0.10        	Lomas           	;				
 NUD127E20568    	11.833      	0.10        	Lomas           	;				
 NUD127E20567    	15.92       	0.00        	Lomas           	;				
 NUD127E20566    	15.39       	0.06        	Campina         	;				
 NUD127E20565    	14          	0.13        	Campina         	;				
 NUD127E20564    	14          	0.00        	Lomas           	;				
 NUD127E20563    	26.829      	0.00        	Lomas           	;				
 NUD127E20562    	26.916      	0.14        	Lomas           	;				
 NUD127E20561    	31.84       	0.02        	Lomas           	;				
 NUD127E20560    	32          	0.21        	Lomas           	;				
 NUD127E20559    	36.167      	0.13        	Lomas           	;				
 NUD127E20558    	36.055      	0.03        	Lomas           	;				
 NUD127E20557    	22          	0.00        	Lomas           	;				
 NUD127E20556    	29.748      	0.08        	Lomas           	;				
 NUD127E20555    	24.682      	0.31        	Lomas           	;				
 NUD127E20554    	24.818      	0.37        	PiedraBolivar2  	;				
 NUD127E20553    	32.149      	0.20        	Lomas           	;				
 NUD127E20552    	24.547      	0.11        	Lomas           	;				
 NUD127E20551    	26          	0.36        	Lomas           	;				
 NUD127E20550    	26          	0.37        	PiedraBolivar2  	;				
 NUD127E20549    	40          	0.00        	Lomas           	;				
 NUD127E20548    	26.852      	0.04        	PiedraBolivar2  	;				
 NUD127E20547    	26.706      	0.30        	Lomas           	;				
 NUD127E20546    	39.374      	0.06        	Lomas           	;				
 NUD127E20544    	23.509      	0.00        	Lomas           	;				
 NUD127E20543    	22.494      	0.10        	Lomas           	;				
 NUD127E20542    	22.859      	0.10        	Lomas           	;				
 NUD127E20541    	24.221      	0.10        	Lomas           	;				
 NUD127E20537    	13.96       	0.00        	Lomas           	;				
 NUD127E20536    	13.773      	0.10        	Lomas           	;				
 NUD127E20535    	35.25       	0.67        	Lomas           	;				
 NUD127E20534    	35.204      	0.37        	Lomas           	;				
 NUD127E20533    	33.604      	0.01        	Lomas           	;				
 NUD127E20532    	32.32       	0.11        	Lomas           	;				
 NUD127E20511    	14.385      	0.00        	Lomas           	;				
 NUD127E20510    	33.702      	0.00        	Conquistador    	;				
 NUD127E20509    	33.707      	0.00        	Lomas           	;				
 NUD127E20508    	38.99       	0.13        	Lomas           	;				
 NUD127E20507    	39.029      	0.00        	Lomas           	;				
 NUD127E20506    	22          	0.00        	Andalucia       	;				
 NUD127E20504    	24.934      	0.00        	Andalucia       	;				
 NUD127E20503    	17.922      	0.00        	Conquistador    	;				
 NUD127E20502    	18          	0.12        	Conquistador    	;				
 NUD127E20501    	21.188      	0.00        	Andalucia       	;				
 NUD127E20500    	21.462      	0.25        	Conquistador    	;				
 NUD127E20499    	17.462      	0.00        	Paraguay        	;				
 NUD127E20498    	17.975      	0.30        	Andalucia       	;				
 NUD127E20497    	37.874      	0.04        	Lomas           	;				
 NUD127E20496    	37.972      	0.00        	Conquistador    	;				
 NUD127E20495    	37.36       	0.00        	Conquistador    	;
 NUD127E20492    	16.056      	0.08        	Campina         	;				
 NUD127E20491    	16.109      	0.16        	Campina         	;				
 NUD127E20490    	44.076      	0.04        	Lomas           	;				
 NUD127E20489    	34.729      	0.06        	Lomas           	;				
 NUD127E20478    	17.443      	0.00        	Zaragocilla2    	;				
 NUD127E20477    	14          	0.00        	Zaragocilla2    	;				
 NUD127E20476    	14          	0.00        	Lomas           	;				
 NUD127E18963    	18.462      	0.16        	AltosNBosque    	;				
 NUD127E18962    	20          	0.11        	Lomas           	;				
 NUD127E18961    	20          	0.08        	Bosquecito      	;				
 NUD127E18960    	40          	0.00        	PiedraBolivar2  	;				
 NUD127E18959    	25.264      	0.00        	Lomas           	;				
 NUD127E18958    	21.835      	0.10        	Lomas           	;				
 NUD127E18957    	22          	0.00        	Lomas           	;				
 NUD127E18938    	24.126      	0.05        	Lomas           	;				
 NUD127E18903    	33.184      	0.08        	Bosquecito      	;				
 NUD127E18902    	37.832      	0.05        	Lomas           	;				
 NUD127E18901    	33.046      	0.00        	Lomas           	;				
 NUD127E18900    	33.105      	0.13        	Lomas           	;				
 NUD127E18899    	38.84       	0.03        	Lomas           	;				
 NUD127E18898    	38.366      	0.15        	Lomas           	;				
 NUD127E18897    	23.406      	0.03        	PiedraBolivar1  	;				
 NUD127E18896    	24.458      	0.19        	PiedraBolivar2  	;				
 NUD127E18874    	14          	0.00        	Paraguay        	;				
 NUD127E18824    	39.118      	0.00        	Lomas           	;				
 NUD127E18823    	40          	0.18        	Lomas           	;				
 NUD128E18625    	15.591      	1.24        	Zaragocilla2    	;				
 NUD128E18600    	11.671      	0.34        	Campina         	;				
 NUD128E18581    	39.186      	0.06        	Lomas           	;				
 NUD128E18580    	39.28       	0.26        	Lomas           	;				
 NUD128E18579    	48.09       	0.03        	Lomas           	;				
 NUD128E18578    	48.244      	0.00        	Lomas           	;				
 NUD128E18553    	15.369      	0.10        	Lomas           	;				
 NUD128E18552    	15.29       	0.00        	Lomas           	;				
 NUD128E18550    	16.06       	1.2         	Zaragocilla2    	;				
 NUD128E18549    	15.722      	0.05        	LosCerros       	;				
 NUD128E18548    	16.045      	0.27        	LosCerros       	;				
 NUD128E18547    	11.078      	0.16        	LosCerros       	;				
 NUD128E18546    	12          	0.05        	LosCerros       	;				
 NUD128E18545    	22          	0.00        	LosCerros       	;				
 NUD128E18543    	24          	0.11        	Conquistador    	;				
 NUD128E18536    	25.988      	0.30        	Lomas           	;				
 NUD128E18534    	34.432      	0.16        	Lomas           	;				
 NUD128E18533    	29.875      	0.16        	Lomas           	;				
 NUD128E18531    	56          	0.00        	Lomas           	;				
 NUD128E18530    	55.731      	0.00        	Lomas           	;				
 NUD128E18473    	16.897      	0.04        	Calamares       	;				
 NUD128E18472    	17.015      	0.00        	Calamares       	;				
 NUD128E18466    	43.715      	0.00        	Lomas           	;				
 NUD128E18465    	43.569      	0.00        	Lomas           	;				
 NUD128E18454    	30.668      	0.02        	AltosNBosque    	;				
 NUD128E18442    	25.013      	0.11        	LaConquista     	;				
 NUD128E18441    	25.568      	0.00        	LaConquista     	;				
 NUD128E18440    	25.205      	0.00        	LaConquista     	;				
 NUD128E18439    	35.028      	0.18        	Lomas           	;				
 NUD128E18438    	34.315      	0.00        	Lomas           	;				
 NUD128E18411    	27.552      	0.93        	PiedraBolivar2  	;				
 NUD128E18380    	24          	0.34        	LaConquista     	;				
 NUD128E18353    	20          	0.04        	EscallonVilla   	;				
 NUD128E18352    	20          	0.46        	EscallonVilla   	;				
 NUD128E18345    	18.574      	0.00        	Campina         	;				
 NUD128E18344    	18.483      	0.00        	Campina         	;				
 NUD128E18107    	21.272      	0.17        	EscallonVilla   	;				
 NUD128E18103    	23.92       	0.24        	Conquistador    	;				
 NUD128E18102    	24.58       	0.22        	Conquistador    	;				
 NUD128E18078    	13.589      	1.51        	Zaragocilla2    	;				
 NUD128E18071    	32          	0.36        	Conquistador    	;				
 NUD128E18070    	25.152      	0.07        	Conquistador    	;				
 NUD128E18069    	25.086      	0.02        	Conquistador    	;				
 NUD128E18068    	24.514      	0.12        	Conquistador    	;				
 NUD128E18067    	23.647      	0.18        	Bosquecito      	;				
 NUD128E18059    	40          	0.00        	Lomas           	;				
 NUD128E18008    	20.719      	0.00        	Paraguay        	;				
 NUD128E18007    	34          	0.29        	Conquistador    	;				
 NUD128E18006    	34          	0.00        	Conquistador    	;				
 NUD128E18005    	37.823      	0.00        	Conquistador    	;				
 NUD128E18004    	38          	0.00        	Conquistador    	;				
 NUD128E18003    	38          	0.00        	Conquistador    	;				
 NUD128E18002    	29.443      	0.02        	Lomas           	;				
 NUD128E18001    	29.092      	0.02        	Lomas           	;				
 NUD128E18000    	39.774      	0.00        	Lomas           	;				
 NUD128E17999    	39.394      	0.00        	Lomas           	;				
 NUD128E17998    	40          	0.16        	Lomas           	;				
 NUD128E17997    	40          	0.10        	Lomas           	;				
 NUD128E17989    	25.421      	0.00        	Lomas           	;				
 NUD128E17953    	18.069      	0.05        	Calamares       	;				
 NUD128E17952    	18.862      	0.17        	Calamares       	;				
 NUD128E17951    	16.738      	0.04        	Calamares       	;				
 NUD128E17948    	32.008      	0.05        	Lomas           	;				
 NUD128E17947    	28          	0.20        	Lomas           	;				
 NUD128E17946    	44.564      	0.01        	Lomas           	;				
 NUD128E17945    	44.546      	0.00        	Lomas           	;				
 NUD128E17944    	55.057      	0.00        	Lomas           	;				
 NUD128E17943    	42.953      	0.19        	Lomas           	;				
 NUD128E17942    	42.9        	0.19        	Lomas           	;				
 NUD128E17941    	27.688      	0.00        	Lomas           	;				
 NUD128E17930    	16.872      	0.21        	EscallonVilla   	;				
 NUD127E18817    	16.299      	0.00        	EscallonVilla   	;				
 NUD128E17929    	20.947      	0.18        	EscallonVilla   	;				
 NUD128E17855    	37.951      	0.00        	Lomas           	;				
 NUD128E17854    	38          	0.00        	Lomas           	;				
 NUD128E17853    	40.37       	0.00        	PiedraBolivar2  	;				
 NUD128E17852    	40.38       	0.43        	PiedraBolivar2  	;				
 NUD128E17851    	40.381      	0.21        	Lomas           	;				
 NUD128E17850    	28          	0.08        	Lomas           	;				
 NUD128E17849    	28          	0.37        	Lomas           	;				
 NUD128E17844    	20.844      	0.00        	Paraguay        	;				
 NUD128E17843    	20.965      	0.28        	Paraguay        	;				
 NUD128E17842    	26.849      	0.13        	Andalucia       	;				
 NUD128E17841    	27.372      	0.48        	Andalucia       	;				
 NUD128E17840    	29.901      	0.00        	PiedraBolivar1  	;				
 NUD128E17839    	30.493      	0.03        	PiedraBolivar1  	;				
 NUD128E17838    	38.317      	0.00        	Lomas           	;				
 NUD128E17837    	40.277      	0.01        	Lomas           	;				
 NUD128E17836    	37.567      	0.06        	Conquistador    	;				
 NUD128E17835    	37.226      	0.06        	Conquistador    	;				
 NUD128E17833    	34.053      	0.14        	Lomas           	;				
 NUD128E17832    	35.229      	0.00        	Lomas           	;				
 NUD128E17831    	36.871      	1.19        	Lomas           	;				
 NUD128E17827    	24.731      	0.00        	LosCerros       	;				
 NUD128E17826    	25.343      	0.05        	LosCerros       	;				
 NUD128E17825    	16          	0.00        	Bosquecito      	;				
 NUD128E17824    	29.537      	0.08        	Bosquecito      	;				
 NUD128E17823    	30.077      	0.00        	Bosquecito      	;				
 NUD128E17822    	52.984      	0.00        	Lomas           	;				
 NUD128E17821    	52.763      	0.00        	Lomas           	;				
 NUD128E17820    	23.48       	0.10        	Lomas           	;				
 NUD128E17819    	23.117      	0.2         	Zaragocilla2    	;				
 NUD128E17818    	23.422      	0.00        	Lomas           	;				
 NUD128E17817    	23.39       	0.00        	Lomas           	;				
 NUD128E17816    	23.187      	0.10        	Lomas           	;				
 NUD128E17347    	31.295      	0.00        	Lomas           	;				
 NUD128E17346    	31.294      	0.00        	Lomas           	;				
 NUD128E17345    	31.662      	0.00        	Lomas           	;				
 NUD128E17344    	31.357      	0.24        	Lomas           	;				
 NUD128E17343    	34          	0.12        	Lomas           	;				
 NUD128E17330    	27.316      	0.37        	Lomas           	;				
 NUD128E17292    	29.668      	0.00        	Lomas           	;				
 NUD128E17043    	28.184      	0.34        	PiedraBolivar1  	;				
 NUD128E16996    	26          	0.00        	LaConquista     	;				
 NUD128E16995    	26          	0.00        	LaConquista     	;				
 NUD128E16994    	26          	0.21        	LaConquista     	;				
 NUD128E16993    	26          	8.4         	Lomas           	;				
 NUD130E6105     	19.22       	0.94        	EscallonVilla   	;				
 NUD130E6043     	30.577      	0.27        	EscallonVilla   	;				
 NUD130E6037     	16.613      	0.16        	EscallonVilla   	;				
 NUD129E14032    	22.367      	0.38        	EscallonVilla   	;				
 NUD129E14030    	17.67       	0.51        	EscallonVilla   	;				
 NUD129E14029    	34          	0.06        	EscallonVilla   	;				
 NUD130E6011     	19.044      	1.58        	EscallonVilla   	;				
 NUD130E5986     	29.15       	0.40        	EscallonVilla   	;				
 NUD130E5984     	17.721      	1.71        	EscallonVilla   	;				
 NUD130E5977     	18.51       	0.45        	EscallonVilla   	;				
 NUD129E14018    	22.054      	0.21        	EscallonVilla   	;				
 NUD130E5914     	21.868      	0.40        	EscallonVilla   	;				
 NUD130E5906     	21.159      	0.10        	EscallonVilla   	;				
 NUD129E14015    	34          	0.28        	EscallonVilla   	;				
 NUD130E5881     	22          	0.63        	EscallonVilla   	;				
 NUD130E5851     	23.51       	0.45        	EscallonVilla   	;				
 NUD129E13999    	21.736      	1.08        	EscallonVilla   	;				
 NUD130E5796     	21.477      	0.39        	EscallonVilla   	;				
 NUD130E5794     	21.428      	0.56        	EscallonVilla   	;				
 NUD129E13994    	24.549      	0.76        	EscallonVilla   	;				
 NUD130E5763     	24.383      	0.40        	EscallonVilla   	;				
 NUD130E5751     	22.77       	0.10        	EscallonVilla   	;				
 NUD130E5749     	22.742      	0.46        	EscallonVilla   	;				
 NUD129E13989    	22.902      	0.50        	EscallonVilla   	;				
 NUD130E5688     	18.3        	0.92        	EscallonVilla   	;				
 NUD130E5614     	16.72       	0.71        	EscallonVilla   	;				
 NUD130E5577     	18.923      	0.72        	EscallonVilla   	;				
 NUD130E5509     	20          	0.42        	EscallonVilla   	;				
 NUD129E5444     	19.694      	0.16        	Calamares       	;				
 NUD129E5443     	19.819      	0.10        	Calamares       	;				
 NUD130E5436     	19.957      	0.17        	Calamares       	;				
 NUD129E13938    	19.893      	0.17        	Calamares       	;				
 NUD129E16       	19.574      	0.17        	Calamares       	;				
 NUD129E13934    	19.517      	0.08        	Calamares       	;				
 NUD130E5398     	17.93       	0.14        	Calamares       	;				
 NUD129E13928    	18.118      	0.22        	Calamares       	;				
 NUD129E5381     	20          	0.09        	Calamares       	;				
 NUD130E5361     	20          	0.45        	Calamares       	;				
 NUD130E5337     	19.996      	0.17        	Calamares       	;				
 NUD130E5329     	18.772      	0.34        	Calamares       	;				
 NUD129E5317     	18.609      	0.14        	Calamares       	;				
 NUD130E5283     	19.785      	0.47        	Calamares       	;				
 NUD129E5266     	18          	0.17        	Calamares       	;				
 NUD129E13893    	16.696      	0.00        	Calamares       	;				
 NUD129E5245     	17.013      	0.07        	Calamares       	;				
 NUD130E5241     	17.64       	0.08        	Calamares       	;				
 NUD130E5181     	16.273      	0.18        	Lomas           	;				
 NUD129E13867    	15.65       	0.81        	Campina         	;				
 NUD129E13865    	14          	0.14        	Zaragocilla2    	;				
 NUD129E13864    	16          	0.30        	Campina         	;				
 NUD130E5109     	11.726      	0.98        	Campina         	;				
 NUD129E13854    	14          	0.14        	Lomas           	;				
 NUD129E13852    	14.016      	0.14        	Lomas           	;				
 NUD129E13850    	17.259      	0.30        	Campina         	;				
 NUD130E5047     	12.522      	1.30        	Campina         	;				
 NUD130E5036     	15.358      	0.00        	Zaragocilla2    	;				
 NUD130E5033     	10.304      	0.95        	Campina         	;				
 NUD129E13847    	14.38       	0.06        	Lomas           	;				
 NUD129E13846    	14.908      	0.00        	Lomas           	;				
 NUD130E5026     	16.788      	0.10        	Lomas           	;				
 NUD129E13844    	14.99       	0.10        	Lomas           	;				
 NUD130E5023     	16.781      	0.10        	Lomas           	;				
 NUD130E5020     	14.162      	0.00        	Lomas           	;				
 NUD130E5019     	12          	0.27        	Campina         	;				
 NUD130E5013     	14.513      	0.00        	Lomas           	;				
 NUD130E5011     	14.517      	0.00        	Lomas           	;				
 NUD129E13842    	14.526      	0.00        	Lomas           	;				
 NUD130E5009     	14.253      	0.10        	Lomas           	;				
 NUD130E5007     	12          	0.25        	Campina         	;				
 NUD129E13836    	15.05       	0.10        	Lomas           	;				
 NUD130E4981     	20          	0.14        	Lomas           	;				
 NUD130E4980     	14.674      	0.57        	Campina         	;				
 NUD129E13834    	20          	0.10        	Lomas           	;				
 NUD129E13830    	12          	0.39        	Campina         	;				
 NUD129E13829    	14.972      	0.10        	Lomas           	;				
 NUD130E4959     	14.727      	0.10        	Lomas           	;				
 NUD129E13828    	20.186      	0.00        	Lomas           	;				
 NUD129E13827    	14.496      	0.10        	Lomas           	;				
 NUD130E4958     	12          	0.10        	Lomas           	;				
 NUD130E4954     	20.252      	0.39        	Lomas           	;				
 NUD129E13826    	14.502      	0.10        	Lomas           	;				
 NUD130E4950     	20.385      	0.10        	Lomas           	;				
 NUD129E13825    	8.71        	0.08        	Campina         	;				
 NUD130E4939     	11.64       	0.56        	Campina         	;				
 NUD129E13822    	12.682      	0.10        	Lomas           	;				
 NUD129E13821    	14          	0.10        	Lomas           	;				
 NUD130E4935     	12          	0.87        	Campina         	;				
 NUD129E13819    	12          	0.06        	Campina         	;				
 NUD129E13816    	13.399      	0.10        	Lomas           	;				
 NUD130E4917     	19.031      	1.2         	Zaragocilla2    	;				
 NUD130E4912     	12          	0.30        	Campina         	;				
 NUD129E13811    	12          	0.34        	Campina         	;				
 NUD130E4898     	14          	0.10        	Lomas           	;				
 NUD129E13809    	12          	0.22        	Campina         	;				
 NUD130E4893     	14.014      	0.00        	Lomas           	;				
 NUD130E4888     	14          	0.10        	Lomas           	;				
 NUD129E13808    	14.462      	0.10        	Lomas           	;				
 NUD130E4880     	14          	0.10        	Lomas           	;				
 NUD130E4875     	17.223      	0.10        	Lomas           	;				
 NUD129E13805    	9.841       	0.25        	Campina         	;				
 NUD130E4871     	15.82       	0.10        	Lomas           	;				
 NUD130E4865     	17.929      	0.63        	Campina         	;
 NUD130E4864     	17.865      	0.28        	Campina         	;				
 NUD130E4861     	9.775       	0.41        	Campina         	;				
 NUD129E13801    	14          	0.10        	Lomas           	;				
 NUD129E13799    	14.38       	0.08        	Lomas           	;				
 NUD129E13798    	18.375      	0.06        	Campina         	;				
 NUD130E4850     	10.519      	0.67        	Campina         	;				
 NUD130E4849     	18.941      	0.10        	Lomas           	;				
 NUD129E13796    	18.565      	0.00        	Lomas           	;				
 NUD130E4848     	18.786      	0.10        	Lomas           	;				
 NUD130E4846     	14.657      	0.10        	Lomas           	;				
 NUD130E4841     	14.789      	0.10        	Lomas           	;				
 NUD129E13792    	19.188      	0.10        	Lomas           	;				
 NUD130E4832     	13.723      	0.56        	Campina         	;				
 NUD130E4830     	15.778      	0.10        	Lomas           	;				
 NUD130E4829     	15.626      	0.10        	Lomas           	;				
 NUD129E13790    	14.236      	0.10        	Lomas           	;				
 NUD129E13789    	18.336      	0.10        	Lomas           	;				
 NUD129E13788    	14.279      	0.10        	Lomas           	;				
 NUD130E4811     	11.509      	0.58        	Campina         	;				
 NUD130E4808     	16          	0.10        	Lomas           	;				
 NUD129E13785    	11.778      	0.00        	Campina         	;				
 NUD130E4798     	17.383      	0.10        	Lomas           	;				
 NUD130E4780     	15.466      	0.10        	Lomas           	;				
 NUD130E4776     	16          	0.10        	Lomas           	;				
 NUD130E4774     	16          	0.10        	Lomas           	;				
 NUD130E4773     	12          	0.50        	Campina         	;				
 NUD129E13777    	15.542      	0.10        	Lomas           	;				
 NUD129E13776    	18          	0.10        	Lomas           	;				
 NUD130E4762     	15.756      	0.10        	Lomas           	;				
 NUD130E4759     	16          	0.10        	Lomas           	;				
 NUD130E4758     	16          	0.10        	Lomas           	;				
 NUD130E4756     	16.225      	0.10        	Lomas           	;				
 NUD130E4740     	17.495      	0.10        	Lomas           	;				
 NUD130E4739     	17.49       	0.10        	Lomas           	;				
 NUD130E4735     	17.453      	0.10        	Lomas           	;				